Version 4
SHEET 1 1612 680
WIRE 832 -112 832 -368
WIRE 848 -112 832 -112
WIRE 848 -96 848 -112
WIRE 544 16 384 16
WIRE 656 16 544 16
WIRE 784 16 736 16
WIRE 848 16 848 -16
WIRE 1072 16 848 16
WIRE 848 48 848 16
WIRE 384 96 384 16
WIRE 784 96 784 16
WIRE 848 240 848 144
FLAG 848 240 0
FLAG 832 -448 0
FLAG 1072 16 Vout_Q1
FLAG 544 16 Vout_RC
FLAG 384 176 0
SYMBOL npn 784 48 R0
SYMATTR InstName Q1
SYMATTR Value 2N3904
SYMBOL res 832 -112 R0
SYMATTR InstName R2
SYMATTR Value 18
SYMBOL voltage 832 -352 R180
WINDOW 0 24 96 Left 2
WINDOW 3 24 16 Left 2
WINDOW 123 0 0 Left 0
WINDOW 39 0 0 Left 0
SYMATTR InstName V2
SYMATTR Value 1.8
SYMBOL res 752 0 R90
WINDOW 0 0 56 VBottom 2
WINDOW 3 32 56 VTop 2
SYMATTR InstName R4
SYMATTR Value 2.7k
SYMBOL voltage 384 80 R0
WINDOW 123 0 0 Left 0
WINDOW 39 0 0 Left 0
SYMATTR InstName V1
SYMATTR Value 3.3
TEXT 344 264 Left 2 !.tran 10
